data_image0
_chemical_formula_structural       CdOH2N3CdN6CNC3HCHNOCdOH2N2CdN2C3NOCHCHCH2N5OH2N3ONCHCHCHC2HCN5CNC2HC2NOCH3CH2OH2O4
_chemical_formula_sum              "Cd4 O12 H24 N32 C24"
_cell_length_a       7.962100028991699
_cell_length_b       7.783299922943115
_cell_length_c       17.97700037948523
_cell_angle_alpha    90.0
_cell_angle_beta     98.5789998630764
_cell_angle_gamma    90.0

_space_group_name_H-M_alt    "P 1"
_space_group_IT_number       1

loop_
  _space_group_symop_operation_xyz
  'x, y, z'

loop_
  _atom_site_type_symbol
  _atom_site_label
  _atom_site_symmetry_multiplicity
  _atom_site_fract_x
  _atom_site_fract_y
  _atom_site_fract_z
  _atom_site_occupancy
  Cd  Cd1       1.0  0.006939996812363748  0.17014000632123372  0.24139599271175832  1.0000
  O   O1        1.0  0.22849999443308908  0.0816000024015542  0.18056999932079132  1.0000
  H   H1        1.0  0.21599999925018085  0.09400000171539585  0.13379999064344453  1.0000
  H   H2        1.0  0.24600000486315618  0.9760000191144109  0.18979999450624266  1.0000
  N   N1        1.0  0.12920000158609737  0.4151000048214876  0.29850000574054725  1.0000
  N   N2        1.0  0.26400000549400393  0.4176999935611391  0.3388599959934199  1.0000
  N   N3        1.0  0.3929000118900456  0.42190001778497915  0.37709000180156615  1.0000
  Cd  Cd2       1.0  0.9930599957015905  0.6701400369533026  0.2586040072882417  1.0000
  N   N4        1.0  0.8707999965423913  0.9151000354535564  0.20149999425945278  1.0000
  N   N5        1.0  0.7360000049606812  0.917700024193208  0.16113999059408654  1.0000
  N   N6        1.0  0.6070999731378631  0.9218999871529103  0.12290999819843387  1.0000
  N   N7        1.0  0.8952999749414469  0.5157000074068342  0.14873000049679877  1.0000
  N   N8        1.0  0.9097000139108479  0.348500005789461  0.1405700003937908  1.0000
  N   N9        1.0  0.8506000217898835  0.3036000093856659  0.06997000108051048  1.0000
  C   C1        1.0  0.8013000166623919  0.452300018079047  0.03659999888408054  1.0000
  N   N10       1.0  0.8261000101920327  0.5854000330703815  0.08345999868664863  1.0000
  C   C2        1.0  0.7227999837988168  0.46819999163131876  0.9573199434443433  1.0000
  C   C3        1.0  0.6067999988185225  0.5979999832136262  0.9339599936435511  1.0000
  C   C4        1.0  0.5342999863891685  0.6043000195493863  0.859179977314645  1.0000
  H   H3        1.0  0.455199990318548  0.6891999840958298  0.8426999928860135  1.0000
  C   C5        1.0  0.579000000746794  0.48539999018548513  0.8092299737254617  1.0000
  H   H4        1.0  0.528799995939016  0.4887999966672309  0.7590999744733423  1.0000
  N   N11       1.0  0.6949000050149118  0.3644000099738016  0.8326599903923626  1.0000
  O   O2        1.0  0.7439999967272113  0.25510000972261865  0.7823999972531214  1.0000
  Cd  Cd3       1.0  0.006939995263596889  0.3298599936787663  0.7413959658867713  1.0000
  O   O3        1.0  0.22849999564718657  0.41839999759844576  0.6805699859082979  1.0000
  H   H5        1.0  0.24599999379545992  0.5240000115176578  0.6897999810937492  1.0000
  H   H6        1.0  0.21599999262732422  0.40600001360063853  0.633799977230951  1.0000
  N   N12       1.0  0.10469999059696408  0.48429999259316575  0.8512699860907077  1.0000
  N   N13       1.0  0.09029999654383725  0.651499994210539  0.8594299861937157  1.0000
  Cd  Cd4       1.0  0.9930600016388694  0.8298599936787663  0.7586039804632546  1.0000
  N   N14       1.0  0.8952999763613194  0.9843000232252346  0.6487299602593183  1.0000
  N   N15       1.0  0.826100022905421  0.9145999975616873  0.5834599919804019  1.0000
  C   C6        1.0  0.8012999762635239  0.04770000106599599  0.5366000122965741  1.0000
  C   C7        1.0  0.7228000168405335  0.031800000710663995  0.4573199970943174  1.0000
  C   C8        1.0  0.7652999977436717  0.14790000626732128  0.40539999328302323  1.0000
  N   N16       1.0  0.6949000199870031  0.1356000053422328  0.33265999039236266  1.0000
  O   O4        1.0  0.7439999817551198  0.24490000559341576  0.2823999972531213  1.0000
  C   C9        1.0  0.5789999948095153  0.014600000241993344  0.30923000055044875  1.0000
  H   H7        1.0  0.5287999900017373  0.011200000461012636  0.2591000012983294  1.0000
  C   C10       1.0  0.5343000103960726  0.8957000110826825  0.359180004139632  1.0000
  H   H8        1.0  0.4552000052906395  0.8107999852721013  0.34269999288601344  1.0000
  C   C11       1.0  0.6067999838464311  0.9019999861543049  0.4339599936435511  1.0000
  H   H9        1.0  0.5785999807209283  0.8208000079398322  0.46799999012840476  1.0000
  H   H10       1.0  0.842699974005567  0.2350999950192256  0.4205999966307816  1.0000
  N   N17       1.0  0.8505999678387965  0.19640000593036852  0.5699699742555234  1.0000
  N   N18       1.0  0.9096999554423548  0.15149999421053897  0.6405699601563103  1.0000
  N   N19       1.0  0.87080000247967  0.5848999951785123  0.7014999674344657  1.0000
  N   N20       1.0  0.736000024450179  0.5823000064388608  0.66114000400658  1.0000
  N   N21       1.0  0.6070999881099546  0.5780999822150208  0.6229099981984338  1.0000
  O   O5        1.0  0.7714999920146921  0.9184000282305146  0.8194299604417281  1.0000
  H   H11       1.0  0.7839999871976004  0.9059999829685697  0.8661999691190749  1.0000
  H   H12       1.0  0.753999981584625  0.024000000030632067  0.8101999652562768  1.0000
  N   N22       1.0  0.12919999442279625  0.08490000283652957  0.7984999789155602  1.0000
  N   N23       1.0  0.2639999998794697  0.08229999878084365  0.83885999599342  1.0000
  N   N24       1.0  0.39290000440399986  0.07809999753105525  0.8770900018015662  1.0000
  O   O6        1.0  0.2560000014012773  0.7550999790905498  0.7176000027468786  1.0000
  N   N25       1.0  0.30510000247113406  0.8643999793417327  0.6673400096076374  1.0000
  C   C12       1.0  0.42099999615567224  0.985400020817554  0.6907699726245643  1.0000
  H   H13       1.0  0.4711999859913588  0.9887999966672308  0.7408999718766837  1.0000
  C   C13       1.0  0.4656999955412064  0.10430000423335191  0.640819969035381  1.0000
  H   H14       1.0  0.5447999947093606  0.18919999941186427  0.6573000071139866  1.0000
  C   C14       1.0  0.3932000011814776  0.0979999985296607  0.5660400063564489  1.0000
  H   H15       1.0  0.42140000430698027  0.17920000737620218  0.5320000098715952  1.0000
  C   C15       1.0  0.27719999813155805  0.9681999916313188  0.5426800029056826  1.0000
  C   C16       1.0  0.2346999932215157  0.8520999784166443  0.5945999798919898  1.0000
  H   H16       1.0  0.15729999075846052  0.7649000356128433  0.5793999765442314  1.0000
  C   C17       1.0  0.19869999753531617  0.9522999874469782  0.46339998770342594  1.0000
  N   N26       1.0  0.14939999973249804  0.803599978753597  0.4300299989194895  1.0000
  N   N27       1.0  0.09029999654383725  0.8485000364215298  0.3594299861937157  1.0000
  N   N28       1.0  0.10469999527574268  0.015699999748817035  0.35126998609070775  1.0000
  N   N29       1.0  0.1738999942609265  0.08540000243831268  0.4165399811946111  1.0000
  N   N30       1.0  0.149400017189112  0.6963999906143341  0.9300300257444766  1.0000
  C   C18       1.0  0.1986999937922933  0.5476999819209529  0.9633999877034259  1.0000
  N   N31       1.0  0.1738999889691368  0.4145999975616873  0.9165399543696241  1.0000
  C   C19       1.0  0.27719999700220643  0.5317999777366124  0.04267999955255922  1.0000
  C   C20       1.0  0.39319999892277446  0.4020000167863737  0.06603999965020217  1.0000
  H   H17       1.0  0.42140000091892554  0.3208000079398322  0.031999999812225094  1.0000
  C   C21       1.0  0.4657000045760189  0.3957000110826825  0.140819995860368  1.0000
  C   C22       1.0  0.4209999902183934  0.5146000098145148  0.19076999944955128  1.0000
  N   N32       1.0  0.30509999046768205  0.6355999900261984  0.16733999619514384  1.0000
  O   O7        1.0  0.2559999987553825  0.7448999902773813  0.21759998933438515  1.0000
  C   C23       1.0  0.23469999999762511  0.6478999909512868  0.09460000001072999  1.0000
  H   H18       1.0  0.15729999379154708  0.7350999950192256  0.07939999666297161  1.0000
  H   H19       1.0  0.47119999502617144  0.511200003332769  0.24089999870167064  1.0000
  H   H20       1.0  0.5448000051640457  0.3108000159041701  0.15729999370149306  1.0000
  C   C24       1.0  0.7652999737367678  0.35210000904871314  0.9053999664580362  1.0000
  H   H21       1.0  0.8426999799428458  0.2649000049807744  0.9205999698057946  1.0000
  H   H22       1.0  0.5785999776233947  0.6792000226922366  0.9679999364784307  1.0000
  O   O8        1.0  0.7714999860774133  0.5816000024015542  0.3194299872667152  1.0000
  H   H23       1.0  0.7539999756473462  0.4760000191144109  0.3101999920812638  1.0000
  H   H24       1.0  0.7839999812603216  0.5939999863993614  0.36619999594406194  1.0000
  O   O9        1.0  0.1728999955853959  0.0572000011578922  0.01797000012822344  1.0000
  O   O10       1.0  0.8271000027205768  0.5572000279609525  0.4820299948420915  1.0000
  O   O11       1.0  0.8270999696788601  0.9428000026711164  0.9820299411921175  1.0000
  O   O12       1.0  0.1729000020751713  0.4428000026711164  0.5179700051579085  1.0000
